<?xml version="1.0" encoding="UTF-8"?>

<!-- generated on 12/01/24 15:50:52 by Eclipse SUMO duarouter Version 1.3.1
<configuration xmlns:xsi="http://www.w3.org/2001/XMLSchema-instance" xsi:noNamespaceSchemaLocation="http://sumo.dlr.de/xsd/duarouterConfiguration.xsd">

    <input>
        <net-file value="E:/Alan/SMESTRE/inte/veins-veins-5.1/examples/veins/erlangen.net.xml"/>
        <additional-files value="E:/Alan/SMESTRE/inte/veins-veins-5.1/examples/veins/type.add.xml"/>
        <route-files value="E:/Alan/SMESTRE/inte/veins-veins-5.1/examples/veins/trips.trips.xml"/>
    </input>

    <output>
        <output-file value="routes.rou.xml"/>
        <alternatives-output value="routes.rou.alt.xml"/>
    </output>

    <time>
        <begin value="0"/>
        <end value="400.0"/>
    </time>

    <report>
        <no-warnings value="true"/>
        <ignore-errors value="true"/>
        <no-step-log value="true"/>
    </report>

</configuration>
-->

<routes xmlns:xsi="http://www.w3.org/2001/XMLSchema-instance" xsi:noNamespaceSchemaLocation="http://sumo.dlr.de/xsd/routes_file.xsd">
    <vType id="myType" maxSpeed="19.44" vClass="passenger"/>
    <vehicle id="0" type="myType" depart="0.00">
        <route edges="4319351 4319352#0 -3013106#2 -3013106#1 -3013106#0 -3998612#2 -3998612#1 -3998612#0 3998613#0"/>
    </vehicle>
    <vehicle id="1" type="myType" depart="10.00">
        <route edges="33174302#1 -33174302#1 -33174302#0 -29900565#3 -29900565#2 -29900565#1 -29900565#0 -4006690 -4006693#4"/>
    </vehicle>
    <vehicle id="2" type="myType" depart="20.00">
        <route edges="-4006690 4006690 29900565#0 29900565#1 29900565#2 29900565#3 33174302#0 33174302#1 4686970#0 4686970#1 122161381 30350448 8364476 30350450#0 30350450#1 30350450#2 4006702#0 31255203#0 31255203#1"/>
    </vehicle>
    <vehicle id="3" type="myType" depart="30.00">
        <route edges="-31401017#1 4006688#0 4006688#1 4006688#2 4006688#3 4006688#4 29900561#0 29900561#1 32270595 33174302#0 33174302#1 4686970#0 4686970#1 122161381 30350448 8364476 30350450#0 30350450#1 30350450#2 4006702#0 31255203#0 31255203#1 31241838#0 31241838#1 -31241816#0 31241816#0"/>
    </vehicle>
    <vehicle id="4" type="myType" depart="40.00">
        <route edges="23605595 -23605595 -8403007 -29900564#1 -8402998#2 -8402998#1 -8402997 32270595 33174302#0 33174302#1 4686970#0 4686970#1 122161381 30350448 8364476 30350450#0 30350450#1 30350450#2 4006702#0 31255203#0 -31255203#0"/>
    </vehicle>
    <vehicle id="5" type="myType" depart="50.00">
        <route edges="-4006740 3998613#2 -31353573#1 -31353573#0 -33174302#1 -33174302#0 -32270595 8402997 8402998#1 8402998#2 29900564#1"/>
    </vehicle>
    <vehicle id="6" type="myType" depart="60.00">
        <route edges="-4006693#2 -4006693#1"/>
    </vehicle>
    <vehicle id="7" type="myType" depart="70.00">
        <route edges="122161390 25472299 30350448 30350449 25472079 30405352 30350445 -33174302#1 -33174302#0 -32270595 -29900561#1 -29900561#0 -4006688#4 -4006688#3 -4006688#2 -4006688#1 -4006688#0 -31401017#0 -29900567 -23605600#2"/>
    </vehicle>
    <vehicle id="8" type="myType" depart="80.00">
        <route edges="8403001 29900564#0 29900564#1 8403007 -23341293 -10425128#0"/>
    </vehicle>
    <vehicle id="9" type="myType" depart="90.00">
        <route edges="-31401017#1 4006688#0 4006688#1 4006688#2 4006688#3 4006688#4 29900561#0 29900561#1 32270595 33174302#0 33174302#1 4686970#0 4686970#1 122161381 30350448 8364476 30350450#0 -3998645#2 3998645#2"/>
    </vehicle>
    <vehicle id="10" type="myType" depart="100.00">
        <route edges="31241835#1 31241834#0 31241848 -31241816#1"/>
    </vehicle>
    <vehicle id="11" type="myType" depart="110.00">
        <route edges="10425128#0 23341293 -8403007 -29900564#1 -29900564#0 -8403001"/>
    </vehicle>
    <vehicle id="12" type="myType" depart="120.00">
        <route edges="-3998643#1 3998643#1 3998615#2"/>
    </vehicle>
    <vehicle id="13" type="myType" depart="130.00">
        <route edges="30405352 30350445 -33174302#1 -33174302#0 -32270595 8402997"/>
    </vehicle>
    <vehicle id="14" type="myType" depart="140.00">
        <route edges="4006725#0 -4872369 -4006724#1 -4047378 10573414#1 3013106#0 3013106#1 3013106#2 4006702#0 28613737 94344941 94344940#0 94344940#2 -54105725"/>
    </vehicle>
    <vehicle id="15" type="myType" depart="150.00">
        <route edges="-4006724#2 4872369 4006725#1 -3998612#0 3998613#0 3998613#1 3998613#2 -31353573#1 4006673 -32302591#4 -32302591#3 -32302591#2 4006683 -4006674#1"/>
    </vehicle>
    <vehicle id="16" type="myType" depart="160.00">
        <route edges="3998612#2 3013106#0 3013106#1 3013106#2 4006702#0 31255203#0 31255203#1 31241838#0 -31241853#1 -31241855#1 -31241855#0"/>
    </vehicle>
    <vehicle id="17" type="myType" depart="170.00">
        <route edges="-8403007 -29900564#1 -29900564#0 -8403001 -4006674#4 -4006674#3 -4006674#2"/>
    </vehicle>
    <vehicle id="18" type="myType" depart="180.00">
        <route edges="4006693#3 -4006693#3 -4006693#2 -4006693#1 -4006693#0 -31401017#2 -31401017#1 -31401017#0 -29900567 -31401018 -4047532 4047532"/>
    </vehicle>
    <vehicle id="19" type="myType" depart="190.00">
        <route edges="-4006672 32302591#0 32302591#1 32302591#2 32302591#3 32302591#4 32302591#5 -32270595 -29900561#1 -29900561#0 -4006688#4 -4006688#3 -4006688#2 -4006688#1 -4006688#0"/>
    </vehicle>
    <vehicle id="20" type="myType" depart="200.00">
        <route edges="-4006674#1 -4006682 32302591#1 32302591#2 32302591#3 32302591#4 32302591#5 33174302#0 33174302#1 4686970#0 25472257 -30357194 3998612#0 3998612#1 -4006724#2 -4006724#1 -4047378 10573414#1"/>
    </vehicle>
    <vehicle id="21" type="myType" depart="210.00">
        <route edges="28613727#0 28613727#1 94344940#2 94344940#3"/>
    </vehicle>
    <vehicle id="22" type="myType" depart="220.00">
        <route edges="-4006688#0 4006688#0 4006688#1 4006688#2 4006688#3 4006688#4 29900561#0 29900561#1 32270595 33174302#0 33174302#1 4686970#0 4686970#1 122161381 30350448 30350449 4047309 30751813 -35842306#1 -35842306#0 -4900741 -4900739#2 4900739#2"/>
    </vehicle>
    <vehicle id="23" type="myType" depart="230.00">
        <route edges="-25398494#0 -31401017#2 -31401017#1 4006688#0 4006688#1 4006688#2 4006688#3 4006688#4 29900561#0 29900561#1 32270595 33174302#0 33174302#1 4686970#0 4686970#1 122161381 30350448 8364476 30350450#0 30350450#1 30350450#2 4006702#0 4006702#1 4006702#2 -23805514#1 -32611578"/>
    </vehicle>
    <vehicle id="24" type="myType" depart="240.00">
        <route edges="-3998645#1 -3998645#0 -3998612#0 30357194 25472299 30350448 30350449 25472079 30405352 30350445 -33174302#1 -33174302#0 -32270595 -29900561#1 -29900561#0 -4006688#4 -4006688#3 -4006688#2 -4006688#1 10712011"/>
    </vehicle>
    <vehicle id="25" type="myType" depart="250.00">
        <route edges="-32302591#1 32302591#1 32302591#2 32302591#3 32302591#4 32302591#5 33174302#0 33174302#1 4686970#0 4686970#1 122161381 30350448 8364476 30350450#0 30350450#1 30350450#2 4006702#0 31255203#0 31255203#1 31241838#0 -31241838#0"/>
    </vehicle>
    <vehicle id="26" type="myType" depart="260.00">
        <route edges="30405356 25472079 30405352 30350445 -33174302#1 -33174302#0 -32270595 -29900561#1 -29900561#0 -4006688#4 -4006688#3 -4006688#2 -4006688#1"/>
    </vehicle>
    <vehicle id="27" type="myType" depart="270.00">
        <route edges="-31255203#1 -31255203#0 -4006702#0 4319352#1 44069041#0 44069041#1 25472079 30405352 30350445 -33174302#1 -33174302#0 -32270595 8402997 8402998#1 8402998#2 29900564#1 8403007 -23341293 10425128#1"/>
    </vehicle>
    <vehicle id="28" type="myType" depart="280.00">
        <route edges="4900043 4900041#1 4900041#2 4900041#3 4900041#0 -4900043 -4006702#1 -4006702#0 4319352#1 44069041#0 25472134 30751813 -35842306#1 -35842306#0 -4900741 4900741"/>
    </vehicle>
    <vehicle id="29" type="myType" depart="290.00">
        <route edges="113939244#2 113939242#0 113939242#1 -25398494#0 -31401017#2 -31401017#1 4006688#0 4006688#1 4006688#2 4006688#3 4006688#4 29900561#0 9643180"/>
    </vehicle>
    <vehicle id="30" type="myType" depart="300.00">
        <route edges="-29900565#1 29900565#1 29900565#2 29900565#3 -32270595 8402997"/>
    </vehicle>
    <vehicle id="31" type="myType" depart="310.00">
        <route edges="32302591#4 32302591#5 33174302#0 33174302#1 4686970#0 4686970#1 122161381 30350448 8364476 30350450#0 30350450#1 30350450#2 4006702#0 31255203#0 31255203#1 31241838#0 31241838#1 -31241816#0 31241816#0"/>
    </vehicle>
    <vehicle id="32" type="myType" depart="320.00">
        <route edges="-4006683 32302591#2 32302591#3 32302591#4 32302591#5 -29900565#3 -29900565#2 -29900565#1 -29900565#0"/>
    </vehicle>
    <vehicle id="33" type="myType" depart="330.00">
        <route edges="-3013106#1 3013106#1 3013106#2 4319352#1 44069041#0 44069041#1 25472079 30405352 30350445 -33174302#1 -33174302#0 -32270595 -29900561#1 -29900561#0 -8403001 -4006674#4 -4006674#3 4006674#3"/>
    </vehicle>
    <vehicle id="34" type="myType" depart="340.00">
        <route edges="30350448 30350449 25472079 30405352 30350445 -33174302#1 -33174302#0 -32270595 -29900561#1 -29900561#0 -4006688#4 10425131"/>
    </vehicle>
    <vehicle id="35" type="myType" depart="350.00">
        <route edges="-32302591#0 32302591#0 32302591#1 32302591#2 32302591#3 32302591#4 32302591#5 33174302#0 33174302#1 4686970#0 4686970#1 122161381 30350448 8364476 30350450#0 -3998645#2 -3998645#1 -4006726#2 4099270#0"/>
    </vehicle>
    <vehicle id="36" type="myType" depart="360.00">
        <route edges="4797871 4006668 23339459 30405358#1 85355912 85355911#0 85355911#1 30405356 5931612 30350450#0 30350450#1 30350450#2 4006702#0 28613737"/>
    </vehicle>
    <vehicle id="37" type="myType" depart="370.00">
        <route edges="4006674#1 4006674#2 4006674#3 4006674#4 4006687 32270595 33174302#0 33174302#1 4686970#0 4686970#1 122161381 30350448 30350449 4047309 30751813 -35842306#1 -35842306#0 -31777493#1 31270441"/>
    </vehicle>
    <vehicle id="38" type="myType" depart="380.00">
        <route edges="-31241838#1 -31241838#0 -31255203#1 -31255203#0 -4006702#0 4319352#1 44069041#0 44069041#1 25472079 30405352 30350445 -33174302#1 -33174302#0 -32270595 -29900561#1 -29900561#0 -4006688#4 -4006688#3 -4006688#2 -4006688#1 -4006688#0 -31401017#0 -29900567 -31401018 -4047532 -32270592#1"/>
    </vehicle>
    <vehicle id="39" type="myType" depart="390.00">
        <route edges="-4006674#0 -4006672 32302591#0 32302591#1 32302591#2 32302591#3 32302591#4 32302591#5 33174302#0 33174302#1 4686970#0 25472257 -30357194 3998612#0 3998612#1 3998612#2 3013109"/>
    </vehicle>
</routes>
