<additional>
  <vType id="myType" maxSpeed="19.4444" vClass="passenger"/>
</additional>